data_MIL-100-Fe_moldraw
_audit_creation_date              2019-03-20
_audit_creation_method            'B3LYP-D*/pob-TZVP,6-311G(d,p)'
_symmetry_space_group_name_H-M    'I41/AMD'
_symmetry_Int_Tables_number       141
_symmetry_cell_setting            tetragonal
loop_
_symmetry_equiv_pos_as_xyz
  x,y,z
  -x+1/2,-y+1/2,z+1/2
  -y,x+1/2,z+1/4
  y+1/2,-x,z+3/4
  -x+1/2,y,-z+3/4
  x,-y+1/2,-z+1/4
  y+1/2,x+1/2,-z+1/2
  -y,-x,-z
  -x,-y+1/2,-z+1/4
  x+1/2,y,-z+3/4
  y,-x,-z
  -y+1/2,x+1/2,-z+1/2
  x+1/2,-y+1/2,z+1/2
  -x,y,z
  -y+1/2,-x,z+3/4
  y,x+1/2,z+1/4
  x+1/2,y+1/2,z+1/2
  -x,-y,z
  -y+1/2,x,z+3/4
  y,-x+1/2,z+1/4
  -x,y+1/2,-z+1/4
  x+1/2,-y,-z+3/4
  y,x,-z
  -y+1/2,-x+1/2,-z+1/2
  -x+1/2,-y,-z+3/4
  x,y+1/2,-z+1/4
  y+1/2,-x+1/2,-z+1/2
  -y,x,-z
  x,-y,z
  -x+1/2,y+1/2,z+1/2
  -y,-x+1/2,z+1/4
  y+1/2,x,z+3/4
_cell_length_a                    51.7301
_cell_length_b                    51.7301
_cell_length_c                    73.3017
_cell_angle_alpha                 90.0000
_cell_angle_beta                  90.0000
_cell_angle_gamma                 90.0000
loop_
_atom_site_label
_atom_site_type_symbol
_atom_site_fract_x
_atom_site_fract_y
_atom_site_fract_z
_atom_site_U_iso_or_equiv
_atom_site_adp_type
_atom_site_occupancy
H1     H    -0.12761   0.26586   0.56944   0.00000  Uiso   1.00
H25    H    -0.19860   0.22715   0.55625   0.00000  Uiso   1.00
H41    H    -0.45850   0.57099   0.21186   0.00000  Uiso   1.00
H57    H    -0.84296   0.26839   0.51469   0.00000  Uiso   1.00
H73    H    -0.19941   1.15242   0.63454   0.00000  Uiso   1.00
H89    H    -0.84307   1.11137   0.67558   0.00000  Uiso   1.00
H105   H    -0.45856   0.81050   0.97735   0.00000  Uiso   1.00
H121   H    -0.12592   1.18120   0.65270   0.00000  Uiso   1.00
H145   H    -0.25267   0.34809   0.51558   0.00000  Uiso   1.00
H161   H    -0.53326   0.56472   0.29922   0.00000  Uiso   1.00
H177   H    -0.71480   0.31953   0.55008   0.00000  Uiso   1.00
H193   H    -0.17894   0.32061   0.49701   0.00000  Uiso   1.00
H209   H    -0.57471   0.56848   0.24855   0.00000  Uiso   1.00
H225   H    -0.74788   0.24896   0.57024   0.00000  Uiso   1.00
H241   H    -0.25496   0.31606   0.60446   0.00000  Uiso   1.00
H257   H    -0.42740   0.63433   0.28403   0.00000  Uiso   1.00
H273   H    -0.81694   0.38551   0.53322   0.00000  Uiso   1.00
H289   H    -0.27468   1.04147   0.61577   0.00000  Uiso   1.00
H313   H    -0.32545   1.07533   0.62377   0.00000  Uiso   1.00
H337   H    -0.35321   1.07428   0.67888   0.00000  Uiso   1.00
H353   H    -0.68287   1.04153   0.71145   0.00000  Uiso   1.00
H369   H    -0.46476   0.89570   0.86308   0.00000  Uiso   1.00
H385   H    -0.45853   0.92345   0.73553   0.00000  Uiso   1.00
C1     C    -0.16637   0.23834   0.58477   0.00000  Uiso   1.00
C17    C    -0.45145   0.62155   0.20217   0.00000  Uiso   1.00
C33    C    -0.88228   0.28636   0.53631   0.00000  Uiso   1.00
C49    C    -0.16332   0.24547   0.56492   0.00000  Uiso   1.00
C65    C    -0.47654   0.60683   0.20400   0.00000  Uiso   1.00
C81    C    -0.86019   0.26873   0.54144   0.00000  Uiso   1.00
C97    C    -0.14213   0.26042   0.55952   0.00000  Uiso   1.00
C121   C    -0.18213   0.23854   0.55201   0.00000  Uiso   1.00
C137   C    -0.47664   0.58082   0.20948   0.00000  Uiso   1.00
C153   C    -0.84127   0.26174   0.52863   0.00000  Uiso   1.00
C169   C    -0.18003   0.24656   0.53376   0.00000  Uiso   1.00
C193   C    -0.20119   0.24028   0.52016   0.00000  Uiso   1.00
C217   C    -0.16626   1.19225   0.63018   0.00000  Uiso   1.00
C233   C    -0.88341   1.14413   0.67827   0.00000  Uiso   1.00
C249   C    -0.45142   0.80890   1.01378   0.00000  Uiso   1.00
C265   C    -0.16275   1.16889   0.64204   0.00000  Uiso   1.00
C281   C    -0.86120   1.14573   0.66518   0.00000  Uiso   1.00
C297   C    -0.47662   0.80770   1.00369   0.00000  Uiso   1.00
C313   C    -0.18236   1.15030   0.64293   0.00000  Uiso   1.00
C329   C    -0.84151   1.12720   0.66602   0.00000  Uiso   1.00
C345   C    -0.47669   0.80937   0.98463   0.00000  Uiso   1.00
C361   C    -0.14093   1.16662   0.65318   0.00000  Uiso   1.00
C385   C    -0.18042   1.12942   0.65498   0.00000  Uiso   1.00
C409   C    -0.20255   1.11091   0.65709   0.00000  Uiso   1.00
C433   C    -0.27622   0.34860   0.58039   0.00000  Uiso   1.00
C449   C    -0.45832   0.61432   0.30977   0.00000  Uiso   1.00
C465   C    -0.76578   0.38619   0.53787   0.00000  Uiso   1.00
C481   C    -0.27151   0.32045   0.57782   0.00000  Uiso   1.00
C497   C    -0.44745   0.60072   0.29360   0.00000  Uiso   1.00
C513   C    -0.78060   0.36906   0.52534   0.00000  Uiso   1.00
C529   C    -0.23184   0.34989   0.51518   0.00000  Uiso   1.00
C545   C    -0.54548   0.57524   0.28981   0.00000  Uiso   1.00
C561   C    -0.72351   0.30860   0.56107   0.00000  Uiso   1.00
C577   C    -0.21719   0.33252   0.50483   0.00000  Uiso   1.00
C593   C    -0.55348   0.56360   0.27354   0.00000  Uiso   1.00
C609   C    -0.73059   0.28276   0.55836   0.00000  Uiso   1.00
C625   C    -0.19031   0.33441   0.50463   0.00000  Uiso   1.00
C641   C    -0.56892   0.57723   0.26130   0.00000  Uiso   1.00
C657   C    -0.74207   0.26879   0.57242   0.00000  Uiso   1.00
C673   C    -0.25287   0.28090   0.58904   0.00000  Uiso   1.00
C689   C    -0.42413   0.60267   0.26526   0.00000  Uiso   1.00
C705   C    -0.82187   0.35363   0.51483   0.00000  Uiso   1.00
C721   C    -0.25960   0.30663   0.59173   0.00000  Uiso   1.00
C737   C    -0.43227   0.61440   0.28134   0.00000  Uiso   1.00
C753   C    -0.80737   0.37099   0.52507   0.00000  Uiso   1.00
C769   C    -0.24562   1.04880   0.64623   0.00000  Uiso   1.00
C793   C    -0.25253   1.02352   0.63716   0.00000  Uiso   1.00
C817   C    -0.26827   1.02336   0.62159   0.00000  Uiso   1.00
C841   C    -0.31351   1.08938   0.65861   0.00000  Uiso   1.00
C857   C    -0.73279   1.04817   0.70306   0.00000  Uiso   1.00
C873   C    -0.45573   0.86266   0.89037   0.00000  Uiso   1.00
C889   C    -0.33735   1.07680   0.65187   0.00000  Uiso   1.00
C905   C    -0.71959   1.02326   0.70682   0.00000  Uiso   1.00
C921   C    -0.44494   0.86118   0.87167   0.00000  Uiso   1.00
C937   C    -0.34006   1.06998   0.63362   0.00000  Uiso   1.00
C961   C    -0.35580   1.06924   0.66470   0.00000  Uiso   1.00
C977   C    -0.69308   1.02334   0.71040   0.00000  Uiso   1.00
C993   C    -0.45266   0.87969   0.85892   0.00000  Uiso   1.00
C1009  C    -0.37686   1.05441   0.65931   0.00000  Uiso   1.00
C1033  C    -0.39447   1.04334   0.67336   0.00000  Uiso   1.00
C1057  C    -0.45224   0.95656   0.70687   0.00000  Uiso   1.00
C1081  C    -0.47667   0.94527   0.71409   0.00000  Uiso   1.00
C1105  C    -0.47659   0.92910   0.72928   0.00000  Uiso   1.00
C1129  C    -0.23771   0.26751   0.60328   0.00000  Uiso   1.00
C1145  C    -0.41066   0.61870   0.25158   0.00000  Uiso   1.00
C1161  C    -0.85037   0.35435   0.51635   0.00000  Uiso   1.00
C1177  C    -0.23038   0.31046   0.49558   0.00000  Uiso   1.00
C1193  C    -0.54300   0.53757   0.26877   0.00000  Uiso   1.00
C1209  C    -0.72813   0.27110   0.53982   0.00000  Uiso   1.00
O9     O    -0.41121   1.02739   0.66815   0.00000  Uiso   1.00
O25    O    -0.63977   0.97812   0.71387   0.00000  Uiso   1.00
O41    O    -0.44969   0.89029   0.81007   0.00000  Uiso   1.00
O57    O    -0.45420   0.97175   0.69352   0.00000  Uiso   1.00
O73    O    -0.56880   0.95065   0.71517   0.00000  Uiso   1.00
O89    O    -0.47818   0.90112   0.76143   0.00000  Uiso   1.00
O105   O    -0.25799   1.09416   0.67543   0.00000  Uiso   1.00
O129   O    -0.25448   1.06949   0.63900   0.00000  Uiso   1.00
O145   O    -0.76776   1.04825   0.66077   0.00000  Uiso   1.00
O161   O    -0.47821   0.80237   0.90834   0.00000  Uiso   1.00
O177   O    -0.26662   1.14124   0.65508   0.00000  Uiso   1.00
O193   O    -0.77836   1.09560   0.70420   0.00000  Uiso   1.00
O209   O    -0.45237   0.86170   0.93829   0.00000  Uiso   1.00
O225   O    -0.22239   1.11408   0.64706   0.00000  Uiso   1.00
O241   O    -0.79943   1.09340   0.66937   0.00000  Uiso   1.00
O257   O    -0.47819   0.81662   0.94671   0.00000  Uiso   1.00
O273   O    -0.29734   1.09821   0.64685   0.00000  Uiso   1.00
O289   O    -0.75611   1.04701   0.69689   0.00000  Uiso   1.00
O305   O    -0.44886   0.84513   0.90187   0.00000  Uiso   1.00
O329   O    -0.90725   1.15814   0.71704   0.00000  Uiso   1.00
O345   O    -0.23222   0.24381   0.60046   0.00000  Uiso   1.00
O361   O    -0.40205   0.60735   0.23736   0.00000  Uiso   1.00
O377   O    -0.86308   0.33875   0.50631   0.00000  Uiso   1.00
O393   O    -0.18742   1.19281   0.62084   0.00000  Uiso   1.00
O409   O    -0.88365   1.12392   0.68866   0.00000  Uiso   1.00
O425   O    -0.43099   0.80987   1.00366   0.00000  Uiso   1.00
O441   O    -0.18666   0.22518   0.58890   0.00000  Uiso   1.00
O457   O    -0.43085   0.60910   0.20664   0.00000  Uiso   1.00
O473   O    -0.88251   0.29438   0.51968   0.00000  Uiso   1.00
O489   O    -0.23031   1.21917   0.63312   0.00000  Uiso   1.00
O505   O    -0.86005   1.13027   0.72197   0.00000  Uiso   1.00
O521   O    -0.40959   0.85711   0.99540   0.00000  Uiso   1.00
O549   O    -0.21593   0.29301   0.48830   0.00000  Uiso   1.00
O565   O    -0.54971   0.52747   0.25346   0.00000  Uiso   1.00
O581   O    -0.73293   0.24687   0.53801   0.00000  Uiso   1.00
O597   O    -0.19909   0.24856   0.50387   0.00000  Uiso   1.00
O613   O    -0.52176   0.52898   0.22205   0.00000  Uiso   1.00
O629   O    -0.77921   0.22743   0.52591   0.00000  Uiso   1.00
O645   O    -0.14970   0.24594   0.59612   0.00000  Uiso   1.00
O661   O    -0.45191   0.64478   0.19697   0.00000  Uiso   1.00
O677   O    -0.89858   0.29272   0.54829   0.00000  Uiso   1.00
O693   O    -0.14945   0.29019   0.61973   0.00000  Uiso   1.00
O709   O    -0.45136   0.69042   0.21907   0.00000  Uiso   1.00
O725   O    -0.89972   0.33788   0.57109   0.00000  Uiso   1.00
O741   O    -0.25468   0.30986   0.49608   0.00000  Uiso   1.00
O757   O    -0.52748   0.52778   0.28002   0.00000  Uiso   1.00
O773   O    -0.72221   0.28640   0.52713   0.00000  Uiso   1.00
O789   O    -0.28828   0.36055   0.56812   0.00000  Uiso   1.00
O805   O    -0.47315   0.60152   0.31988   0.00000  Uiso   1.00
O821   O    -0.74223   0.38096   0.54011   0.00000  Uiso   1.00
O837   O    -0.31059   1.08962   0.67567   0.00000  Uiso   1.00
O853   O    -0.72012   1.06863   0.70547   0.00000  Uiso   1.00
O869   O    -0.47169   0.88047   0.89338   0.00000  Uiso   1.00
F29    F    -0.94364   1.19462   0.68092   0.00000  Uiso   1.00
F45    F    -0.31191   1.11097   0.71011   0.00000  Uiso   1.00
Fe9    Fe   -0.60184   0.96939   0.71206   0.00000  Uiso   1.00
Fe25   Fe   -0.20424   1.22443   0.61285   0.00000  Uiso   1.00
Fe41   Fe   -0.89690   1.12407   0.71338   0.00000  Uiso   1.00
Fe57   Fe   -0.39886   0.82652   1.01078   0.00000  Uiso   1.00
Fe73   Fe   -0.22735   0.25696   0.48444   0.00000  Uiso   1.00
Fe97   Fe   -0.26015   1.10407   0.65125   0.00000  Uiso   1.00
Fe113  Fe   -0.77058   1.07485   0.68197   0.00000  Uiso   1.00
Fe129  Fe   -0.46964   0.83505   0.92312   0.00000  Uiso   1.00
Fe153  Fe   -0.92646   1.17720   0.69816   0.00000  Uiso   1.00
Fe181  Fe   -0.28611   1.10413   0.69421   0.00000  Uiso   1.00
H17    H    -0.50000   0.63969   0.19686   0.00000  Uiso   1.00
H137   H    -0.50000   0.80593   1.02800   0.00000  Uiso   1.00
H401   H    -0.50000   0.96584   0.69464   0.00000  Uiso   1.00
C113   C    -0.50000   0.61964   0.20111   0.00000  Uiso   1.00
C185   C    -0.50000   0.56754   0.21219   0.00000  Uiso   1.00
C209   C    -0.50000   0.53990   0.21904   0.00000  Uiso   1.00
C377   C    -0.50000   0.80686   1.01324   0.00000  Uiso   1.00
C401   C    -0.50000   0.81033   0.97499   0.00000  Uiso   1.00
C425   C    -0.50000   0.81450   0.95473   0.00000  Uiso   1.00
C785   C    -0.50000   0.79475   0.90224   0.00000  Uiso   1.00
C809   C    -0.50000   0.77627   0.88626   0.00000  Uiso   1.00
C1073  C    -0.50000   0.90638   0.75426   0.00000  Uiso   1.00
C1097  C    -0.50000   0.92098   0.73684   0.00000  Uiso   1.00
C1121  C    -0.50000   0.95311   0.70634   0.00000  Uiso   1.00
O121   O    -0.50000   0.85293   0.91904   0.00000  Uiso   1.00
F61    F    -0.50000   0.92402   0.90224   0.00000  Uiso   1.00
Fe197  Fe   -0.50000   0.89132   0.91066   0.00000  Uiso   1.00
H305   H    -0.76707   1.00000   0.65707   0.00000  Uiso   1.00
H329   H    -0.75320   1.00000   0.70156   0.00000  Uiso   1.00
C833   C    -0.75530   1.00000   0.64488   0.00000  Uiso   1.00
C953   C    -0.73286   1.00000   0.70491   0.00000  Uiso   1.00
C1025  C    -0.67976   1.00000   0.71193   0.00000  Uiso   1.00
C1049  C    -0.65101   1.00000   0.71359   0.00000  Uiso   1.00
O1     O    -0.40968   1.00000   0.70169   0.00000  Uiso   1.00
F1     F    -0.45697   1.00000   0.66129   0.00000  Uiso   1.00
Fe1    Fe   -0.43450   1.00000   0.68002   0.00000  Uiso   1.00
O321   O    -0.18568   0.25000   0.62500   0.00000  Uiso   1.00
F21    F    -0.11294   0.25000   0.62500   0.00000  Uiso   1.00
Fe145  Fe   -0.14752   0.25000   0.62500   0.00000  Uiso   1.00
O537   O    -0.25544   0.25544   0.50000   0.00000  Uiso   1.00
F9     F    -0.30840   0.30840   0.50000   0.00000  Uiso   1.00
Fe169  Fe   -0.28376   0.28376   0.50000   0.00000  Uiso   1.00
O545   O    -0.50000   0.50000   0.25323   0.00000  Uiso   1.00
F17    F    -0.50000   0.50000   0.30610   0.00000  Uiso   1.00
Fe177  Fe   -0.50000   0.50000   0.28154   0.00000  Uiso   1.00
Fe89   Fe   -0.53051   0.50000   0.24007   0.00000  Uiso   1.00
